xflr5 v6.32

Plane name :        UltraStick25e
Polar name :        T1-40.0 m/s-VLM2-NoBodyPanels
Freestream speed :  40.000 m/s


   alpha      Beta       CL          CDi        CDv        CD         CY         Cl         Cm         Cn        Cni       QInf        XCP
   -8.000     0.000  -0.497536   0.019801   0.011657   0.031459  -0.000000   0.000000   0.190403   0.000000   0.000000   40.0000     0.3221
   -7.750     0.000  -0.482412   0.018602   0.011257   0.029859  -0.000000   0.000000   0.184860   0.000000   0.000000   40.0000     0.3218
   -7.500     0.000  -0.467248   0.017438   0.010029   0.027467  -0.000000   0.000000   0.179094   0.000000   0.000000   40.0000     0.3216
   -7.250     0.000  -0.452043   0.016310   0.010538   0.026848  -0.000000   0.000000   0.173689   0.000000   0.000000   40.0000     0.3214
   -7.000     0.000  -0.436803   0.015218   0.009780   0.024998  -0.000000   0.000000   0.167982   0.000000   0.000000   40.0000     0.3212
   -6.750     0.000  -0.421524   0.014162   0.009935   0.024097  -0.000000   0.000000   0.162424   0.000000   0.000000   40.0000     0.3210
   -6.500     0.000  -0.406213   0.013144   0.009442   0.022586  -0.000000   0.000000   0.156730   0.000000   0.000000   40.0000     0.3209
   -6.250     0.000  -0.390866   0.012162   0.009420   0.021582  -0.000000   0.000000   0.151075   0.000000   0.000000   40.0000     0.3207
   -6.000     0.000  -0.375488   0.011217   0.009113   0.020330  -0.000000   0.000000   0.145360   0.000000   0.000000   40.0000     0.3205
   -5.750     0.000  -0.360077   0.010309   0.008914   0.019223  -0.000000   0.000000   0.139616   0.000000   0.000000   40.0000     0.3204
   -5.500     0.000  -0.344638   0.009439   0.008860   0.018299  -0.000000   0.000000   0.133887   0.000000   0.000000   40.0000     0.3202
   -5.250     0.000  -0.329168   0.008606   0.008474   0.017081  -0.000000   0.000000   0.128055   0.000000   0.000000   40.0000     0.3200
   -5.000     0.000  -0.313673   0.007811   0.008702   0.016514  -0.000000   0.000000   0.122313   0.000000   0.000000   40.0000     0.3199
   -4.750     0.000  -0.298150   0.007054   0.008205   0.015259  -0.000000   0.000000   0.116413   0.000000   0.000000   40.0000     0.3198
   -4.500     0.000  -0.282603   0.006334   0.008554   0.014889  -0.000000   0.000000   0.110627   0.000000   0.000000   40.0000     0.3196
   -4.250     0.000  -0.267032   0.005653   0.007998   0.013651  -0.000000   0.000000   0.104669   0.000000   0.000000   40.0000     0.3195
   -4.000     0.000  -0.251440   0.005010   0.008372   0.013382  -0.000000   0.000000   0.098828   0.000000   0.000000   40.0000     0.3194
   -3.750     0.000  -0.235825   0.004406   0.007795   0.012201  -0.000000   0.000000   0.092821   0.000000   0.000000   40.0000     0.3193
   -3.500     0.000  -0.220193   0.003840   0.008214   0.012054  -0.000000   0.000000   0.086928   0.000000   0.000000   40.0000     0.3192
   -3.250     0.000  -0.204540   0.003312   0.007636   0.010948  -0.000000   0.000000   0.080875   0.000000   0.000000   40.0000     0.3191
   -3.000     0.000  -0.188872   0.002823   0.008096   0.010919  -0.000000   0.000000   0.074930   0.000000   0.000000   40.0000     0.3190
   -2.750     0.000  -0.173187   0.002373   0.007526   0.009899  -0.000000   0.000000   0.068834   0.000000   0.000000   40.0000     0.3190
   -2.500     0.000  -0.157489   0.001962   0.007994   0.009955  -0.000000   0.000000   0.062836   0.000000   0.000000   40.0000     0.3189
   -2.250     0.000  -0.141776   0.001590   0.007440   0.009030  -0.000000   0.000000   0.056700   0.000000   0.000000   40.0000     0.3188
   -2.000     0.000  -0.126053   0.001256   0.007913   0.009169  -0.000000   0.000000   0.050649   0.000000   0.000000   40.0000     0.3188
   -1.750     0.000  -0.110319   0.000962   0.007364   0.008326  -0.000000   0.000000   0.044475   0.000000   0.000000   40.0000     0.3187
   -1.500     0.000  -0.094576   0.000707   0.007847   0.008554  -0.000000   0.000000   0.038373   0.000000   0.000000   40.0000     0.3187
   -1.250     0.000  -0.078825   0.000491   0.007312   0.007803  -0.000000   0.000000   0.032165   0.000000   0.000000   40.0000     0.3186
   -1.000     0.000  -0.063067   0.000314   0.007795   0.008109  -0.000000   0.000000   0.026013   0.000000   0.000000   40.0000     0.3186
   -0.750     0.000  -0.047305   0.000177   0.007273   0.007450  -0.000000   0.000000   0.019770   0.000000   0.000000   40.0000     0.3186
   -0.500     0.000  -0.031539   0.000079   0.007764   0.007843  -0.000000   0.000000   0.013573   0.000000   0.000000   40.0000     0.3186
   -0.250     0.000  -0.015770   0.000020   0.007254   0.007274  -0.000000  -0.000000   0.007296   0.000000   0.000000   40.0000     0.3186
    0.000     0.000  -0.000000   0.000000   0.007742   0.007742  -0.000000  -0.000000   0.001055   0.000000   0.000000   40.0000     0.4759
    0.250     0.000   0.015770   0.000020   0.007254   0.007274   0.000000  -0.000000  -0.005254  -0.000000  -0.000000   40.0000     0.3186
    0.500     0.000   0.031538   0.000079   0.007757   0.007835  -0.000000  -0.000000  -0.011535   0.000000   0.000000   40.0000     0.3186
    0.750     0.000   0.047303   0.000177   0.007273   0.007450   0.000000  -0.000000  -0.017876  -0.000000  -0.000000   40.0000     0.3186
    1.000     0.000   0.063064   0.000314   0.007781   0.008096  -0.000000  -0.000000  -0.024197   0.000000   0.000000   40.0000     0.3186
    1.250     0.000   0.078820   0.000491   0.007312   0.007803   0.000000  -0.000000  -0.030567  -0.000000  -0.000000   40.0000     0.3187
    1.500     0.000   0.094569   0.000707   0.007833   0.008540  -0.000000  -0.000000  -0.036923   0.000000   0.000000   40.0000     0.3187
    1.750     0.000   0.110309   0.000962   0.007364   0.008326   0.000000  -0.000000  -0.043323  -0.000000  -0.000000   40.0000     0.3187
    2.000     0.000   0.126040   0.001256   0.007902   0.009158   0.000000  -0.000000  -0.049711   0.000000   0.000000   40.0000     0.3188
    2.250     0.000   0.141760   0.001589   0.007440   0.009029   0.000000  -0.000000  -0.056139  -0.000000  -0.000000   40.0000     0.3189
    2.500     0.000   0.157469   0.001961   0.007986   0.009947   0.000000  -0.000000  -0.062557   0.000000  -0.000000   40.0000     0.3189
    2.750     0.000   0.173163   0.002373   0.007525   0.009898   0.000000  -0.000000  -0.069011  -0.000000  -0.000000   40.0000     0.3190
    3.000     0.000   0.188844   0.002822   0.008090   0.010913   0.000000  -0.000000  -0.075457  -0.000000  -0.000000   40.0000     0.3191
    3.250     0.000   0.204507   0.003311   0.007634   0.010945   0.000000  -0.000000  -0.081937  -0.000000  -0.000000   40.0000     0.3192
    3.500     0.000   0.220154   0.003838   0.008210   0.012049   0.000000  -0.000000  -0.088409  -0.000000  -0.000000   40.0000     0.3193
    3.750     0.000   0.235781   0.004404   0.007794   0.012199   0.000000  -0.000000  -0.094916  -0.000000  -0.000000   40.0000     0.3194
    4.000     0.000   0.251389   0.005009   0.008370   0.013378   0.000000  -0.000000  -0.101411  -0.000000  -0.000000   40.0000     0.3195
    4.250     0.000   0.266975   0.005651   0.007997   0.013648   0.000000  -0.000000  -0.107947  -0.000000  -0.000000   40.0000     0.3196
    4.500     0.000   0.282540   0.006332   0.008552   0.014884   0.000000  -0.000000  -0.114454  -0.000000  -0.000000   40.0000     0.3197
    4.750     0.000   0.298078   0.007051   0.008231   0.015282   0.000000  -0.000000  -0.121014  -0.000000  -0.000000   40.0000     0.3199
    5.000     0.000   0.313594   0.007808   0.008752   0.016559   0.000000  -0.000000  -0.127540  -0.000000  -0.000000   40.0000     0.3200
    5.250     0.000   0.329081   0.008602   0.008527   0.017129   0.000000  -0.000000  -0.134132  -0.000000  -0.000000   40.0000     0.3201
    5.500     0.000   0.344543   0.009434   0.008973   0.018407   0.000000  -0.000000  -0.140671  -0.000000  -0.000000   40.0000     0.3203
    5.750     0.000   0.359973   0.010304   0.008847   0.019151   0.000000  -0.000000  -0.147280  -0.000000  -0.000000   40.0000     0.3204
    6.000     0.000   0.375375   0.011211   0.009227   0.020438   0.000000  -0.000000  -0.153851  -0.000000  -0.000000   40.0000     0.3206
    6.250     0.000   0.390743   0.012155   0.009240   0.021395   0.000000  -0.000000  -0.160488  -0.000000  -0.000000   40.0000     0.3208
    6.500     0.000   0.406081   0.013136   0.009581   0.022717   0.000000  -0.000000  -0.167053  -0.000000  -0.000000   40.0000     0.3210
    6.750     0.000   0.421382   0.014154   0.009905   0.024059   0.000000  -0.000000  -0.173753  -0.000000  -0.000000   40.0000     0.3211
    7.000     0.000   0.436650   0.015208   0.009942   0.025151   0.000000  -0.000000  -0.180287  -0.000000  -0.000000   40.0000     0.3213
    7.250     0.000   0.451879   0.016299   0.010608   0.026907   0.000000  -0.000000  -0.187054  -0.000000  -0.000000   40.0000     0.3215
    7.500     0.000   0.467073   0.017426   0.010718   0.028144   0.000000  -0.000000  -0.193503  -0.000000  -0.000000   40.0000     0.3218
    7.750     0.000   0.482224   0.018589   0.011442   0.030031   0.000000  -0.000000  -0.200500  -0.000000  -0.000000   40.0000     0.3220
    8.000     0.000   0.497337   0.019787   0.011800   0.031587   0.000000  -0.000000  -0.207217  -0.000000  -0.000000   40.0000     0.3222
    8.250     0.000   0.512408   0.021021   0.012131   0.033152   0.000000  -0.000000  -0.213934  -0.000000  -0.000000   40.0000     0.3224
    8.500     0.000   0.527436   0.022291   0.012440   0.034730   0.000000  -0.000000  -0.220650  -0.000000  -0.000000   40.0000     0.3227
    8.750     0.000   0.542420   0.023595   0.012743   0.036338   0.000000  -0.000000  -0.227369  -0.000000  -0.000000   40.0000     0.3229
    9.000     0.000   0.557359   0.024934   0.013045   0.037979   0.000000  -0.000000  -0.234089  -0.000000  -0.000000   40.0000     0.3231
    9.250     0.000   0.572252   0.026307   0.014032   0.040339   0.000000  -0.000000  -0.241148  -0.000000  -0.000000   40.0000     0.3234
    9.500     0.000   0.587097   0.027715   0.015373   0.043088   0.000000  -0.000000  -0.248398  -0.000000  -0.000000   40.0000     0.3237


